/*--------------------------------*- C++ -*----------------------------------*\
| =========                 |                                                 |
| \\      /  F ield         | OpenFOAM: The Open Source CFD Toolbox           |
|  \\    /   O peration     | Version:  2.2.0                                 |
|   \\  /    A nd           | Web:      www.OpenFOAM.org                      |
|    \\/     M anipulation  |                                                 |
\*---------------------------------------------------------------------------*/
FoamFile
{
    version     2.0;
    format      ascii;
    class       dictionary;
    object      transportProperties;
}
// * * * * * * * * * * * * * * * * * * * * * * * * * * * * * * * * * * * * * //

phaseChangeTwoPhaseMixture SchnerrSauer;

pSat            pSat  [1 -1 -2 0 0]    2300;

hRef            hRef  [0 1 0 0 0 0 0]  (0 0 0);

sigma           sigma [1 0 -2 0 0 0 0] 0.07;

phase1
{
    transportModel Newtonian;
    nu              nu  [0 2 -1 0 0 0 0] 9e-07;
    rho             rho [1 -3 0 0 0 0 0] 1000;
}

phase2
{
    transportModel Newtonian;
    nu              nu  [0 2 -1 0 0 0 0] 4.273e-04;
    rho             rho [1 -3 0 0 0 0 0] 0.02308;
}

SchnerrSauerCoeffs
{
    n               n      [0 -3 0 0 0 0 0]     1.6e+13;
    dNuc            dNuc   [0 1 0 0 0 0 0]      2.0e-06;
    Cc              Cc     [0 0 0 0 0 0 0]      1;
    Cv              Cv     [0 0 0 0 0 0 0]      1;
}

// ************************************************************************* //
